  Page 1                                    Thu Oct 06 12:26:20 2022

  ******************************************************************
  *                           E P A N E T                          *
  *                   Hydraulic and Water Quality                  *
  *                   Analysis for Pipe Networks                   *
  *                         Version 2.2                            *
  ******************************************************************
  
  Analysis begun Thu Oct 06 12:26:20 2022

   
  Hydraulic Status:
  -----------------------------------------------------------------------
     0:00:00: Balanced after 3 trials
     0:00:00: Reservoir 9 is emptying
   
     1:00:00: Balanced after 1 trials
   
     2:00:00: Balanced after 2 trials
   
     3:00:00: Balanced after 1 trials
   
     4:00:00: Balanced after 7 trials
              1 node had its demand reduced by a total of 36.64%
   
     5:00:00: Balanced after 7 trials
              1 node had its demand reduced by a total of 36.64%
   
     6:00:00: Balanced after 8 trials
              2 nodes had demands reduced by a total of 48.44%
   
     7:00:00: Balanced after 8 trials
              2 nodes had demands reduced by a total of 48.44%
   
     8:00:00: Balanced after 7 trials
              1 node had its demand reduced by a total of 36.64%
   
     9:00:00: Balanced after 7 trials
              1 node had its demand reduced by a total of 36.64%
   
    10:00:00: Balanced after 2 trials
   
    11:00:00: Balanced after 1 trials
   
    12:00:00: Balanced after 2 trials
   
    13:00:00: Balanced after 1 trials
   
    14:00:00: Balanced after 2 trials
   
    15:00:00: Balanced after 1 trials
   
    16:00:00: Balanced after 2 trials
   
    17:00:00: Balanced after 1 trials
   
    18:00:00: Balanced after 2 trials
   
    19:00:00: Balanced after 1 trials
   
    20:00:00: Balanced after 2 trials
   
    21:00:00: Balanced after 1 trials
   
    22:00:00: Balanced after 2 trials
   
    23:00:00: Balanced after 1 trials
   
    24:00:00: Balanced after 2 trials
   
  Water Quality Mass Balance (mg)
  ================================
  Initial Mass:      2.14498e+005
  Mass Inflow:       5.29315e+006
  Mass Outflow:      3.38225e+006
  Mass Reacted:      1.81007e+006
  Final Mass:        3.15336e+005
  Mass Ratio:         1.00000
  ================================
