  Page 1                                    Thu Oct 06 11:06:59 2022

  ******************************************************************
  *                           E P A N E T                          *
  *                   Hydraulic and Water Quality                  *
  *                   Analysis for Pipe Networks                   *
  *                         Version 2.2                            *
  ******************************************************************
  
  Analysis begun Thu Oct 06 11:06:59 2022

   
  Hydraulic Status:
  -----------------------------------------------------------------------
     0:00:00: Balanced after 5 trials
     0:00:00: Reservoir 9 is emptying
     0:00:00: Tank 2 is filling at 120.00 ft
   
     1:00:00: Balanced after 1 trials
   
     2:00:00: Balanced after 2 trials
   
     3:00:00: Balanced after 1 trials
   
     4:00:00: Balanced after 2 trials
   
     5:00:00: Balanced after 1 trials
   
     6:00:00: Balanced after 4 trials
     6:00:00: Tank 2 is emptying at 120.51 ft
   
     7:00:00: Balanced after 1 trials
   
     8:00:00: Balanced after 4 trials
     8:00:00: Tank 2 is filling at 120.48 ft
   
     9:00:00: Balanced after 1 trials
   
    10:00:00: Balanced after 3 trials
   
    11:00:00: Balanced after 1 trials
   
    12:00:00: Balanced after 2 trials
   
    13:00:00: Balanced after 1 trials
   
    14:00:00: Balanced after 2 trials
   
    15:00:00: Balanced after 1 trials
   
    16:00:00: Balanced after 2 trials
   
    17:00:00: Balanced after 1 trials
   
    18:00:00: Balanced after 2 trials
   
    19:00:00: Balanced after 1 trials
   
    20:00:00: Balanced after 2 trials
   
    21:00:00: Balanced after 1 trials
   
    22:00:00: Balanced after 2 trials
   
    23:00:00: Balanced after 1 trials
   
    24:00:00: Balanced after 2 trials
   
  Water Quality Mass Balance (mg)
  ================================
  Initial Mass:      7.24592e+006
  Mass Inflow:       6.12439e+006
  Mass Outflow:      3.36560e+006
  Mass Reacted:      5.16735e+006
  Final Mass:        4.83736e+006
  Mass Ratio:         1.00000
  ================================

  Analysis ended Thu Oct 06 11:06:59 2022
