  Page 1                                    Tue Jul 05 17:04:03 2022

  ******************************************************************
  *                           E P A N E T                          *
  *                   Hydraulic and Water Quality                  *
  *                   Analysis for Pipe Networks                   *
  *                         Version 2.2                            *
  ******************************************************************
  
  Analysis begun Tue Jul 05 17:04:04 2022

  Analysis ended Tue Jul 05 17:04:04 2022
