  Page 1                                    Thu Jul 21 15:29:08 2022

  ******************************************************************
  *                           E P A N E T                          *
  *                   Hydraulic and Water Quality                  *
  *                   Analysis for Pipe Networks                   *
  *                         Version 2.00.12                        *
  ******************************************************************
  
  Analysis begun Thu Jul 21 15:29:08 2022

  Analysis ended Thu Jul 21 15:29:08 2022
