  Page 1                                    Fri Jul 15 12:00:15 2022

  ******************************************************************
  *                           E P A N E T                          *
  *                   Hydraulic and Water Quality                  *
  *                   Analysis for Pipe Networks                   *
  *                         Version 2.2                            *
  ******************************************************************
  
  Analysis begun Fri Jul 15 12:00:15 2022

  Analysis ended Fri Jul 15 12:00:15 2022
